 # Quantum Espresso PWSCF output snapshot # 0
 CRYSTAL
 PRIMVEC
     17.24672775        0.00000000        0.00000000
      0.00000000       17.24672775        0.00000000
      0.00000000        0.00000000       17.24672775
 CONVVEC
     17.24672775        0.00000000        0.00000000
      0.00000000       17.24672775        0.00000000
      0.00000000        0.00000000       17.24672775
 PRIMCOORD
        8 1
12        0.00000000        0.00000000        0.00000000
12        8.62336387        8.62336387        0.00000000
12        8.62336387        0.00000000        8.62336387
12        0.00000000        8.62336387        8.62336387
8        8.62336387        0.00000000        0.00000000
8        0.00000000        8.62336387        0.00000000
8        0.00000000        0.00000000        8.62336387
8        8.62336387        8.62336387        8.62336387
